126

S          0.63610       -0.24050       -1.00420
C          2.42520       -0.12390       -0.71280
C          3.14870       -1.31790       -0.51820
C          4.49380       -1.25000       -0.15080
H          5.04100       -2.17890        0.00330
C          5.15080       -0.02850        0.00120
C          4.44110        1.12920       -0.28820
H          4.95240        2.08900       -0.25120
C          3.08760        1.11010       -0.65810
C          2.60990       -2.69720       -0.75760
C          2.59920       -3.19520       -2.07270
C          2.27680       -4.54090       -2.27500
H          2.28300       -4.94190       -3.28670
C          1.96890       -5.39510       -1.21870
C          1.95740       -4.86600        0.07370
H          1.71140       -5.51280        0.91490
C          2.27390       -3.52970        0.32510
C          3.03220       -2.33650       -3.25210
H          2.97540       -1.28830       -2.94540
C          4.49330       -2.64710       -3.60820
H          4.59170       -3.67540       -3.97590
H          5.14230       -2.54200       -2.73220
H          4.85630       -1.96710       -4.38820
C          2.11940       -2.48440       -4.47100
H          2.42290       -1.77160       -5.24620
H          1.08510       -2.26920       -4.19290
H          2.17840       -3.48760       -4.90780
C          2.27390       -3.01570        1.75630
H          2.50500       -1.94530        1.72810
C          0.89850       -3.17210        2.41280
H          0.12820       -2.69990        1.79850
H          0.89810       -2.71510        3.41040
H          0.64030       -4.22840        2.53230
C          3.35070       -3.72400        2.58990
H          3.12310       -4.79220        2.68470
H          3.40170       -3.29930        3.59850
H          4.33980       -3.63520        2.12910
C          6.58620        0.04540        0.40810
C          6.92020        0.36930        1.73870
C          8.26970        0.43630        2.09280
H          8.54410        0.68050        3.11590
C          9.28870        0.20320        1.16880
C          8.93190       -0.09920       -0.14450
H          9.71380       -0.26490       -0.88360
C          7.59630       -0.18310       -0.54480
C          5.83130        0.58280        2.78260
H          4.96520        1.02240        2.27450
C          5.38330       -0.76720        3.35970
H          5.02030       -1.42970        2.56940
H          4.57480       -0.62880        4.08630
H          6.22060       -1.26350        3.86390
C          6.23300        1.54030        3.90660
H          7.00000        1.10570        4.55640
H          5.36280        1.75750        4.53390
H          6.61420        2.48730        3.51160
C         10.74610        0.28900        1.58240
H         10.76510        0.53190        2.65270
C         11.46450       -1.05200        1.38990
H         11.49090       -1.32920        0.33050
H         10.95600       -1.85330        1.93350
H         12.49790       -0.99090        1.74630
C         11.47670        1.40920        0.83190
H         12.51070        1.49740        1.18100
H         10.97760        2.37140        0.97680
H         11.50220        1.20250       -0.24360
C          7.27000       -0.45120       -2.00680
H          6.19120       -0.61410       -2.09100
C          7.96360       -1.70900       -2.54000
H          9.05290       -1.59530       -2.54890
H          7.64160       -1.91030       -3.56700
H          7.72000       -2.58310       -1.92780
C          7.61080        0.77400       -2.86540
H          7.08810        1.66420       -2.50080
H          7.31450        0.60580       -3.90660
H          8.68720        0.97910       -2.84210
C          2.56640        2.46730       -1.03130
C          2.38830        3.42910       -0.02720
C          2.23910        4.77350       -0.38920
H          2.13750        5.51680        0.39860
C          2.26400        5.17760       -1.72140
C          2.36400        4.18720       -2.70400
H          2.34250        4.49370       -3.74770
C          2.50480        2.83450       -2.39260
C          2.35430        3.04090        1.44410
H          2.43040        1.94950        1.50320
C          2.16090        6.63600       -2.13870
H          2.75790        6.74290       -3.05440
C          2.72460        7.60960       -1.10110
H          2.09210        7.64840       -0.20710
H          2.76170        8.62170       -1.51570
H          3.73450        7.32500       -0.79140
C          0.71380        7.01070       -2.48440
H          0.31620        6.37120       -3.27790
H          0.64890        8.05380       -2.81310
H          0.07540        6.89060       -1.60040
C          2.61150        1.78320       -3.49350
H          2.07730        0.89190       -3.14660
C          1.93150        2.20700       -4.79820
H          2.49120        2.99560       -5.31450
H          0.91320        2.56490       -4.62030
H          1.87600        1.34770       -5.47320
C          4.06940        1.38760       -3.77740
H          4.10610        0.64460       -4.58310
H          4.55480        0.95320       -2.89850
H          4.65150        2.26250       -4.09160
O          0.10200        1.11930       -0.75260
O          0.46250       -0.70180       -2.39400
O          0.16370       -1.21090        0.01190
C          1.71310       -6.87040       -1.47060
H          1.68030       -7.01240       -2.55840
C          0.37700       -7.34610       -0.89250
H          0.36320       -7.22610        0.19630
H          0.21530       -8.40720       -1.11090
H         -0.46170       -6.77830       -1.30750
C          2.86520       -7.71950       -0.91650
H          2.92630       -7.61630        0.17280
H          3.82340       -7.40140       -1.33680
H          2.71640       -8.77930       -1.14930
C          1.01850        3.43810        2.08420
H          0.90520        4.52860        2.12230
H          0.95590        3.06210        3.11240
H          0.17840        3.03770        1.50790
C          3.53150        3.64190        2.22260
H          4.49210        3.34290        1.79040
H          3.51090        3.31380        3.26800
H          3.48660        4.73690        2.21210
