159

N          0.01030       -0.03990       -0.41470
C          0.05730       -0.16610       -1.88830
H          0.59220        0.68890       -2.30420
H         -0.95820       -0.19790       -2.27240
H          0.59330       -1.08240       -2.14310
C         -1.18520        0.01690        0.24040
C         -1.19400        0.09170        1.62630
H         -2.15780        0.11910        2.12590
C         -0.01000        0.12530        2.36580
C          1.18810        0.08620        1.64520
H          2.14430        0.11860        2.15890
C          1.19520       -0.00260        0.26330
C         -2.47430       -0.00830       -0.50780
C         -3.17690        1.19090       -0.70440
C         -4.43260        1.11720       -1.31950
H         -4.99770        2.03220       -1.48030
C         -4.98890       -0.08860       -1.73510
C         -4.24880       -1.26160       -1.54160
H         -4.66710       -2.20700       -1.87340
C         -2.99540       -1.24880       -0.93790
C         -2.63530        2.55300       -0.29940
H         -1.62240        2.43440        0.11910
C         -3.50830        3.19150        0.79770
H         -4.54700        3.23930        0.44480
H         -3.51160        2.54460        1.68510
C         -3.03960        4.60260        1.15730
H         -3.69840        5.02940        1.92080
H         -2.03060        4.55090        1.59560
C         -2.99210        5.50170       -0.07760
H         -4.00240        5.60420       -0.49640
H         -2.65690        6.50710        0.19580
C         -2.05740        4.89570       -1.12260
H         -1.04700        4.85290       -0.69510
H         -1.99700        5.53040       -2.01320
C         -2.50690        3.48760       -1.51890
H         -3.47720        3.55660       -2.02690
H         -1.80940        3.04510       -2.24280
C         -6.35150       -0.13140       -2.38830
H         -6.73210        0.90000       -2.42550
C         -6.27970       -0.64930       -3.83580
H         -5.87800       -1.67280       -3.83140
H         -5.57880       -0.03580       -4.41350
C         -7.66270       -0.65420       -4.49170
H         -8.02520        0.37960       -4.57540
H         -7.59050       -1.04620       -5.51130
C         -8.66160       -1.47440       -3.67210
H         -8.34760       -2.52760       -3.66930
H         -9.65170       -1.44170       -4.13770
C         -8.73670       -0.96860       -2.22960
H         -9.14130        0.05290       -2.22440
H         -9.42700       -1.58370       -1.64340
C         -7.35490       -0.96450       -1.57130
H         -7.41340       -0.57430       -0.54880
H         -6.98740       -1.99800       -1.49690
C         -2.21780       -2.53470       -0.72730
H         -1.14200       -2.29380       -0.71830
C         -2.41370       -3.56810       -1.84560
H         -3.45250       -3.92230       -1.84420
H         -2.23490       -3.10530       -2.82360
C         -1.48630       -4.76490       -1.63350
H         -0.44510       -4.42450       -1.72080
H         -1.64000       -5.50560       -2.42460
C         -1.71110       -5.40620       -0.26050
H         -2.71140       -5.85960       -0.24110
H         -0.99690       -6.22160       -0.10070
C         -1.61170       -4.38420        0.87660
H         -1.85440       -4.85880        1.83330
H         -0.57440       -4.02090        0.96240
C         -2.52710       -3.18130        0.63560
H         -2.41060       -2.44620        1.44140
H         -3.58030       -3.49410        0.64260
C         -0.02210        0.19290        3.85350
C         -0.51900        1.34950        4.49460
C         -0.50060        1.38990        5.89080
H         -0.84950        2.27950        6.40480
C         -0.04080        0.31350        6.63740
H         -0.04760        0.36090        7.72160
C          0.42670       -0.82380        5.99320
H          0.76720       -1.66600        6.58680
C          0.46290       -0.90460        4.59920
C         -0.99410        2.59000        3.74780
H         -1.15290        2.34260        2.69080
C          0.08740        3.67890        3.79930
H          0.29290        3.96970        4.83460
H         -0.23600        4.57100        3.25270
H          1.02490        3.32510        3.35650
C         -2.32710        3.10800        4.30180
H         -3.09150        2.32450        4.29910
H         -2.68750        3.94620        3.70130
H         -2.22260        3.46990        5.32820
C          0.94320       -2.20700        3.96990
H          1.09970       -2.05870        2.89430
C         -0.13240       -3.29220        4.12280
H         -0.33520       -3.48920        5.18050
H          0.19550       -4.22840        3.65910
H         -1.07250       -2.98510        3.65150
C          2.27900       -2.66440        4.56840
H          3.04210       -1.88420        4.48360
H          2.63820       -3.55870        4.05440
H          2.17870       -2.92010        5.62670
C          2.48210       -0.04810       -0.48750
C          3.17520       -1.26350       -0.60130
C          4.43130       -1.24330       -1.21840
H          4.99220       -2.17020       -1.30950
C          4.99580       -0.07350       -1.71850
C          4.26350        1.11440       -1.61030
H          4.68830        2.03050       -2.00910
C          3.01020        1.15430       -1.00640
C          2.62670       -2.58530       -0.08670
H          1.59690       -2.43520        0.28000
C          2.55470       -3.64420       -1.20500
H          1.89120       -3.29000       -2.00510
H          3.54680       -3.76220       -1.65810
C          2.09010       -5.00510       -0.68190
H          1.06310       -4.92270       -0.30360
H          2.06720       -5.72960       -1.50290
C          2.98330       -5.49370        0.45660
H          4.00820       -5.63860        0.08870
H          2.63630       -6.46490        0.82310
C          2.98890       -4.46900        1.59060
H          3.62630       -4.80990        2.41330
H          1.96750       -4.37750        1.99220
C          3.46380       -3.09990        1.10040
H          4.51340       -3.17470        0.78580
H          3.43590       -2.36360        1.91470
C          6.35810       -0.08700       -2.37380
H          6.73550       -1.11920       -2.32960
C          7.36620        0.80540       -1.62860
H          7.00210        1.84280       -1.63560
H          7.42690        0.49770       -0.57840
C          8.74600        0.75320       -2.28930
H          9.14790       -0.26590       -2.20450
H          9.43980        1.41080       -1.75570
C          8.66760        1.14370       -3.76700
H          8.35540        2.19450       -3.84640
H          9.65620        1.07210       -4.23140
C          7.66460        0.26340       -4.51610
H          8.02470       -0.77460       -4.51840
H          7.59010        0.57330       -5.56350
C          6.28370        0.31400       -3.85800
H          5.88390        1.33550       -3.93380
H          5.57960       -0.34210       -4.38280
C          2.24310        2.45950       -0.89420
H          1.16530        2.22880       -0.84760
C          2.56790        3.22480        0.40180
H          2.45790        2.56560        1.27150
H          3.62110        3.53620        0.37120
C          1.65390        4.44530        0.53980
H          1.89960        5.00130        1.45080
H          0.61650        4.09180        0.65970
C          1.75000        5.36400       -0.68230
H          1.03780        6.19160       -0.59060
H          2.75120        5.81490       -0.70730
C          1.51600        4.60640       -1.99290
H          0.47260        4.26750       -2.04760
H          1.67280        5.27360       -2.84640
C          2.43410        3.38920       -2.10210
H          3.47490        3.73470       -2.13950
H          2.24720        2.84300       -3.03480
